Circuit: * C:\users\clayton\Documents\projects\electronics\hsa_r0\zwei_stufen.asc

U2:c_cc3: both pins shorted together -- ignoring.
Direct Newton iteration failed to find .op point.  (Use ".option noopiter" to skip.)
Starting Gmin stepping
Gmin = 10
Gmin = 1.07374
vernier = 0.5
vernier = 0.25
vernier = 0.125
vernier = 0.0625
Gmin = 0.995033
vernier = 0.03125
vernier = 0.015625
vernier = 0.0078125
vernier = 0.00390625
vernier = 0.00195312
Gmin = 1.00615
vernier = 0.000976562
vernier = 0.000488281
Gmin = 1.00456
vernier = 0.000651042
vernier = 0.000488281
Gmin = 0
Gmin stepping failed

Starting source stepping with srcstepmethod=0
Source Step = 3.0303%
Source Step = 33.3333%
Source Step = 63.6364%
Source Step = 93.9394%
Source Step = 95.4545%
Source Step = 97.3485%
Source Step = 99.2424%
Source stepping succeeded in finding the operating point.


Date: Sun Jan  7 12:27:36 2024
Total elapsed time: 0.948 seconds.

tnom = 27
temp = 27
method = modified trap
totiter = 5257
traniter = 2082
tranpoints = 1042
accept = 1042
rejected = 0
matrix size = 220
fillins = 536
solver = Normal
Avg thread counts: 5.4/8.1/8.1/4.5
Matrix Compiler1: 40.08 KB object code size  10.4/5.0/[2.9]
Matrix Compiler2: 27.44 KB object code size  4.7/5.4/[1.8]

