Circuit: * C:\users\clayton\Documents\projects\electronics\hsa_r0\Draft3.asc

c1: both pins shorted together -- ignoring.
c2: both pins shorted together -- ignoring.
Direct Newton iteration failed to find .op point.  (Use ".option noopiter" to skip.)
Starting Gmin stepping
Gmin = 10
Gmin = 1.07374
Gmin = 0.115292
Gmin = 0.0123794
Gmin = 0.00132923
Gmin = 0.000142725
Gmin = 1.5325e-05
Gmin = 1.6455e-06
Gmin = 1.76685e-07
Gmin = 1.89714e-08
Gmin = 2.03704e-09
Gmin = 2.18725e-10
Gmin = 2.34854e-11
Gmin = 2.52173e-12
Gmin = 2.70769e-13
Gmin = 0
Gmin stepping succeeded in finding the operating point.


Date: Sun Jan  7 14:31:04 2024
Total elapsed time: 0.862 seconds.

tnom = 27
temp = 27
method = modified trap
totiter = 159714
traniter = 158915
tranpoints = 40410
accept = 24319
rejected = 16091
matrix size = 131
fillins = 195
solver = Normal
Avg thread counts: 1.0/1.2/1.2/1.0
Matrix Compiler1: 15.04 KB object code size  3.9/1.2/[0.7]
Matrix Compiler2: 12.99 KB object code size  1.1/1.0/[0.5]

