Circuit: * C:\users\clayton\Documents\projects\electronics\hsa_r0\Draft1.asc

Ignoring empty pin current: Ix(u1:1)
Ignoring empty pin current: Ix(u1:2)
Direct Newton iteration for .op point succeeded.

Date: Wed Mar 13 07:33:12 2024
Total elapsed time: 0.037 seconds.

tnom = 27
temp = 27
method = trap
totiter = 3
traniter = 0
tranpoints = 0
accept = 0
rejected = 0
matrix size = 4
fillins = 0
solver = Normal
Avg thread counts: 20.0/0.0/20.0/20.0
Matrix Compiler1:       6 opcodes
Matrix Compiler2:      21 opcodes
