Circuit: * C:\users\clayton\Documents\projects\electronics\hsa_r0\preamplifier_zv.asc

U1:c_cc3: both pins shorted together -- ignoring.
WARNING: Node N001 is floating.

WARNING: Less than two connections to node n001.  This node is used by c1.
WARNING: Less than two connections to node nc_01.  This node is used by r3.
Direct Newton iteration for .op point succeeded.

Date: Fri Jan  5 11:48:08 2024
Total elapsed time: 0.047 seconds.

tnom = 27
temp = 27
method = trap
totiter = 19
traniter = 0
tranpoints = 0
accept = 0
rejected = 0
matrix size = 126
fillins = 113
solver = Normal
Avg thread counts: 20.0/0.0/20.0/20.0
Matrix Compiler1:     622 opcodes
Matrix Compiler2: 11.39 KB object code size
