Circuit: * C:\users\clayton\Documents\projects\electronics\hsa_r0\zwei_stufen_zweifachversorgung.asc

c8: both pins shorted together -- ignoring.
c10: both pins shorted together -- ignoring.
c12: both pins shorted together -- ignoring.
Direct Newton iteration failed to find .op point.  (Use ".option noopiter" to skip.)
Starting Gmin stepping
Increasing initial diagonal Gmin to 100
Increasing initial diagonal Gmin to 1000
Gmin = 1000
Gmin = 107.374
Gmin = 11.5292
Gmin = 1.23794
Gmin = 0.132923
Gmin = 0.0142725
Gmin = 0.0015325
Gmin = 0.00016455
Gmin = 1.76685e-05
Gmin = 1.89714e-06
vernier = 0.5
vernier = 0.25
vernier = 0.125
vernier = 0.0625
Gmin = 6.21654e-07
vernier = 0.03125
vernier = 0.015625
vernier = 0.0078125
vernier = 0.00390625
vernier = 0.00195312
vernier = 0.000976562
vernier = 0.000488281
Gmin = 0
Gmin stepping failed

Starting source stepping with srcstepmethod=0
Could not converge to DC with sources off!
Starting source stepping with srcstepmethod=1
Source Step = 3.0303%
Source Step = 33.3333%
Source Step = 63.6364%
Source Step = 93.9394%
Source stepping succeeded in finding the operating point.


Date: Sun Feb 18 15:16:29 2024
Total elapsed time: 0.789 seconds.

tnom = 27
temp = 27
method = modified trap
totiter = 20654
traniter = 18088
tranpoints = 5368
accept = 3844
rejected = 1524
matrix size = 146
fillins = 277
solver = Normal
Avg thread counts: 9.8/2.4/1.6/1.4
Matrix Compiler1: off  3.5/1.3/[0.7]
Matrix Compiler2: 17.81 KB object code size  1.3/1.7/[0.8]

